Circuit: * E:\$GIT\TC1-RLC-Meter\Simulaciones\Draft2.asc

Direct Newton iteration for .op point succeeded.

Date: Wed Sep 07 20:36:56 2022
Total elapsed time: 0.025 seconds.

tnom = 27
temp = 27
method = modified trap
totiter = 16533
traniter = 16530
tranpoints = 8266
accept = 5070
rejected = 3196
matrix size = 3
fillins = 0
solver = Normal
Matrix Compiler1:       3 opcodes  0.0/[0.0]/0.0
Matrix Compiler2: off  [0.0]/0.0/0.0

