Circuit: * E:\$GIT\TC1-RLC-Meter\Simulaciones\signal output RailToRail.asc

Direct Newton iteration failed to find .op point.  (Use ".option noopiter" to skip.)
Starting Gmin stepping
Gmin = 10
Gmin = 1.07374
vernier = 0.5
vernier = 0.25
vernier = 0.125
vernier = 0.0625
Gmin = 0.995033
vernier = 0.03125
vernier = 0.015625
vernier = 0.0078125
vernier = 0.00390625
Gmin = 0.999816
vernier = 0.00195313
vernier = 0.000976563
vernier = 0.000488281
Gmin = 0
Gmin stepping failed

Starting source stepping with srcstepmethod=0
Source Step = 3.0303%
Source Step = 33.3333%
Source Step = 42.4302%
Starting source stepping with srcstepmethod=1
Source Step = 3.0303%
Source Step = 33.3333%
Source Step = 63.6364%
Source Step = 93.9394%
Source Step = 100%
Source Step = 100%
Source Step = 100%
Source Step = 100%
Source stepping succeeded in finding the operating point.


Date: Thu Feb 16 01:16:34 2023
Total elapsed time: 0.827 seconds.

tnom = 27
temp = 27
method = modified trap
totiter = 105020
traniter = 99775
tranpoints = 44814
accept = 36841
rejected = 7973
matrix size = 24
fillins = 38
solver = Normal
Thread vector: 6.5/4.7[2] 1.2/1.6[1] 1.6/1.8[1] 0.1/1.1[1]  2592/500
Matrix Compiler1: 2.99 KB object code size  0.5/0.3/[0.2]
Matrix Compiler2: 3.04 KB object code size  0.3/0.4/[0.2]

