Circuit: * E:\$GIT\TC1-RLC-Meter\Simulaciones\signal output RailToRail.asc

Direct Newton iteration for .op point succeeded.

Date: Thu Sep 15 17:41:31 2022
Total elapsed time: 1.024 seconds.

tnom = 27
temp = 27
method = modified trap
totiter = 318989
traniter = 318985
tranpoints = 153124
accept = 110569
rejected = 42555
matrix size = 13
fillins = 5
solver = Normal
Matrix Compiler1: 790 bytes object code size  0.2/0.1/[0.1]
Matrix Compiler2: 1.24 KB object code size  0.1/0.1/[0.1]

