Circuit: * E:\$GIT\TC1-RLC-Meter\Simulaciones\signal output RailToRail V2.asc

Direct Newton iteration for .op point succeeded.

Date: Thu Feb 02 14:56:37 2023
Total elapsed time: 1.520 seconds.

tnom = 27
temp = 27
method = modified trap
totiter = 252053
traniter = 252045
tranpoints = 101296
accept = 69734
rejected = 31562
matrix size = 26
fillins = 24
solver = Normal
Thread vector: 5.3/3.7[2] 1.2/1.7[1] 0.9/1.3[1] 0.1/1.2[1]  2592/500
Matrix Compiler1: 2.57 KB object code size  0.5/0.3/[0.2]
Matrix Compiler2: 3.26 KB object code size  0.3/0.3/[0.2]

