Circuit: * E:\$GIT\TC1-RLC-Meter\Simulaciones\signal output RailToRail.asc

Direct Newton iteration failed to find .op point.  (Use ".option noopiter" to skip.)
Starting Gmin stepping
Gmin = 10
Gmin = 1.07374
vernier = 0.5
vernier = 0.25
vernier = 0.125
vernier = 0.0625
Gmin = 0.995033
vernier = 0.03125
vernier = 0.015625
vernier = 0.0078125
vernier = 0.00390625
Gmin = 0.999816
vernier = 0.00195313
vernier = 0.000976563
vernier = 0.000488281
Gmin = 0
Gmin stepping failed

Starting source stepping with srcstepmethod=0
Source Step = 3.0303%
Source Step = 33.3333%
Source Step = 63.6364%
Source Step = 93.9394%
Source stepping succeeded in finding the operating point.


Date: Wed Jan 11 22:41:25 2023
Total elapsed time: 5.630 seconds.

tnom = 27
temp = 27
method = modified trap
totiter = 973091
traniter = 971057
tranpoints = 320533
accept = 238086
rejected = 82447
matrix size = 24
fillins = 36
solver = Normal
Thread vector: 6.3/4.9[2] 1.2/1.7[1] 1.7/1.7[1] 0.1/1.2[1]  2592/500
Matrix Compiler1: 2.95 KB object code size  0.5/0.3/[0.1]
Matrix Compiler2: 3.00 KB object code size  0.3/0.3/[0.2]

